 .Wgn file Subbasin: 1 STATION NAME:NCELIZABETHTOWNLOCK2 10/26/2013 12:00:00 AM ArcSWAT 2009.93.7
  LATITUDE =  34.63 LONGITUDE = -78.58
  ELEV [m] =  18.30
  RAIN_YRS =  10.00
 12.91 14.50 19.32 24.45 27.52 29.89 31.48 31.27 28.76 23.76 19.68 14.86
 -0.12  0.86  5.09  9.56 14.11 17.93 20.19 19.88 16.90 10.34  5.35  1.20
  6.31  6.25  5.72  4.78  3.61  3.00  2.45  2.91  3.53  4.15  4.96  5.86
  6.18  5.94  5.59  5.09  4.04  3.18  2.16  2.37  3.74  5.41  5.93  6.24
 84.90 91.10102.50 79.00 87.20119.60158.50142.60106.30 69.10 69.00 80.70
  9.10 10.90 12.40 12.70 11.90 16.30 15.50 15.50 19.60 17.80 14.20 11.20
  0.01  0.81  1.55  0.95  1.49  1.75  1.40  0.73  2.59  2.60  2.01  0.87
  0.26  0.27  0.28  0.20  0.23  0.27  0.31  0.27  0.20  0.14  0.19  0.23
  0.44  0.44  0.42  0.39  0.42  0.41  0.54  0.48  0.44  0.39  0.33  0.40
  9.83  9.43 10.09  7.41  8.80  9.42 12.48 10.59  7.89  5.79  6.63  8.59
 13.70 14.70 16.80 14.20 28.70 51.80 35.10 27.40 27.20 24.40 22.60 21.80
  9.64 12.74 15.42 19.78 21.70 23.46 22.21 19.99 16.34 13.20 10.35  8.55
  2.56  2.42  4.73  9.62 14.66 19.26 21.23 20.68 18.26 12.47  5.98  1.29
  3.12  3.36  3.54  3.60  3.08  2.85  2.71  2.48  2.51  2.53  2.69  2.76
