 .Sol file Watershed HRU:1 Subbasin:1 HRU:1 Luse:WATR Soil: NC001 Slope: 0-5 10/26/2013 12:00:00 AM ArcSWAT 2009.93.7
 Soil Name: MEGGETT
 Soil Hydrologic Group: D
 Maximum rooting depth(m) : 1651.00
 Porosity fraction from which anions are excluded: 0.500
 Crack volume potential of soil: 0.500
 Texture 1                : FSL-SC-SC-SC
 Depth                [mm]:      203.20      406.40     1320.80     1651.00
 Bulk Density Moist [g/cc]:        1.10        1.10        1.12        1.10
 Ave. AW Incl. Rock Frag  :        0.09        0.07        0.06        0.06
 Ksat. (est.)      [mm/hr]:      169.61        9.52        4.96        8.22
 Organic Carbon [weight %]:        2.91        0.97        0.32        0.11
 Clay           [weight %]:       12.50       45.00       47.50       37.50
 Silt           [weight %]:       20.24        7.14        2.78       11.77
 Sand           [weight %]:       67.26       47.86       49.72       50.74
 Rock Fragments   [vol. %]:        1.24        2.94        3.13       10.72
 Soil Albedo (Moist)      :        0.01        0.04        0.12        0.19
 Erosion K                :        0.24        0.32        0.32        0.28
 Salinity (EC, Form 5)    :        0.00        0.00        0.00        0.00
                              
