 .Sol file Watershed HRU:4 Subbasin:1 HRU:4 Luse:WATR Soil: NC035 Slope: 0-5 10/26/2013 12:00:00 AM ArcSWAT 2009.93.7
 Soil Name: NORFOLK
 Soil Hydrologic Group: B
 Maximum rooting depth(m) : 2514.60
 Porosity fraction from which anions are excluded: 0.500
 Crack volume potential of soil: 0.500
 Texture 1                : LS-SCL-CL-VAR
 Depth                [mm]:      355.60      965.20     1778.00     2514.60
 Bulk Density Moist [g/cc]:        1.12        1.10        1.10        1.10
 Ave. AW Incl. Rock Frag  :        0.07        0.07        0.08        0.06
 Ksat. (est.)      [mm/hr]:      587.10       16.96        8.09      652.34
 Organic Carbon [weight %]:        0.73        0.24        0.08        0.03
 Clay           [weight %]:        5.00       26.50       31.50       15.00
 Silt           [weight %]:       15.77       17.66       33.31       30.00
 Sand           [weight %]:       79.23       55.84       35.19       55.00
 Rock Fragments   [vol. %]:        2.49        2.56        0.54       20.00
 Soil Albedo (Moist)      :        0.06        0.14        0.20        0.22
 Erosion K                :        0.17        0.24        0.24        0.00
 Salinity (EC, Form 5)    :        0.00        0.00        0.00        0.00
                              
