 .Sol file Watershed HRU:3 Subbasin:1 HRU:3 Luse:WATR Soil: NC034 Slope: 0-5 10/26/2013 12:00:00 AM ArcSWAT 2009.93.7
 Soil Name: RAINS
 Soil Hydrologic Group: B
 Maximum rooting depth(m) : 2006.60
 Porosity fraction from which anions are excluded: 0.500
 Crack volume potential of soil: 0.500
 Texture 1                : SL-SCL-SCL-SCL
 Depth                [mm]:      304.80     1016.00     1574.80     2006.60
 Bulk Density Moist [g/cc]:        1.10        1.10        1.10        1.10
 Ave. AW Incl. Rock Frag  :        0.08        0.07        0.07        0.07
 Ksat. (est.)      [mm/hr]:      143.51       23.48       19.57       18.27
 Organic Carbon [weight %]:        2.03        0.29        0.29        0.29
 Clay           [weight %]:       12.50       26.50       29.00       30.00
 Silt           [weight %]:       19.65       17.66       17.06       14.56
 Sand           [weight %]:       67.85       55.84       53.94       55.44
 Rock Fragments   [vol. %]:        1.38        1.38        0.53        1.38
 Soil Albedo (Moist)      :        0.01        0.13        0.13        0.13
 Erosion K                :        0.20        0.24        0.28        0.28
 Salinity (EC, Form 5)    :        0.00        0.00        0.00        0.00
                              
